First import method to test
>>> text_indentation = __import__('5-text_indentation').text_indentation

SUCCESS CASES:
==============
	>>> text_indentation("   Hi there.")
	Hi there.
	<BLANKLINE>

	>>> text_indentation("Hello.   ")
	Hello.
	<BLANKLINE>

	>>> text_indentation("    Woah now.    This is messy.   ")
	Woah now.
	<BLANKLINE>
	This is messy.
	<BLANKLINE>

	>>> text_indentation("No ending period, what bad grammar")
	No ending period, what bad grammar

	>>> text_indentation("Let's print a new-line! Here goes:\nPrinted.")
	Let's print a new-line! Here goes:
	<BLANKLINE>
	<BLANKLINE>
	Printed.
	<BLANKLINE>
	
	>>> text_indentation("A sneaky \n new line.")
	A sneaky 
	new line.
	<BLANKLINE>

	>>> text_indentation("\n\n")
	<BLANKLINE>
	<BLANKLINE>

	>>> text_indentation("Hi? worl.")
	Hi?
	<BLANKLINE>
	worl.
	<BLANKLINE>

	>>> text_indentation("Long sentences are those that contain a large number of words and often have multiple clauses or ideas. These sentences can be complex and difficult to understand if not used properly, which is why it is important to know how to structure and use them effectively.")
	Long sentences are those that contain a large number of words and often have multiple clauses or ideas.
	<BLANKLINE>
	These sentences can be complex and difficult to understand if not used properly, which is why it is important to know how to structure and use them effectively.
	<BLANKLINE>

FAIL CASES:
===========
	>>> text_indentation(-1)
	Traceback (most recent call last):
	...
	TypeError: text must be a string

	>>> text_indentation({"hi": 9})
	Traceback (most recent call last):
	...
	TypeError: text must be a string

	>>> text_indentation(None)
	Traceback (most recent call last):
	TypeError: text must be a string

	>>> text_indentation("Hi", "worl")
	Traceback (most recent call last):
	...
	TypeError: text_indentation() takes 1 positional argument but 2 were given
